Version 4
SHEET 1 1336 680
WIRE 576 -32 384 -32
WIRE 736 16 736 0
WIRE 384 32 384 -32
WIRE -32 64 -32 32
WIRE 96 64 96 32
WIRE 480 112 480 64
WIRE 384 128 384 112
WIRE 448 128 384 128
WIRE 576 144 576 -32
WIRE 576 144 512 144
WIRE 624 144 576 144
WIRE 736 144 736 96
WIRE 736 144 688 144
WIRE 928 144 736 144
WIRE 448 160 256 160
WIRE -32 176 -32 144
WIRE -32 176 -112 176
WIRE 96 176 96 144
WIRE 96 176 -32 176
WIRE 736 176 736 144
WIRE -112 192 -112 176
WIRE -32 192 -32 176
WIRE 256 192 256 160
WIRE 384 192 384 128
WIRE 480 224 480 176
WIRE 736 272 736 256
WIRE 384 288 384 272
WIRE -32 304 -32 272
WIRE 256 304 256 272
FLAG -112 192 0
FLAG -32 32 +9V
FLAG -32 304 -9V
FLAG 256 304 0
FLAG 96 32 +5V
FLAG 736 272 0
FLAG 480 64 +9V
FLAG 480 224 -9V
FLAG 384 288 0
FLAG 736 0 +5V
SYMBOL voltage -32 48 R0
WINDOW 123 0 0 Left 0
WINDOW 39 0 0 Left 0
SYMATTR InstName V1
SYMATTR Value 9V
SYMBOL voltage -32 176 R0
WINDOW 123 0 0 Left 0
WINDOW 39 0 0 Left 0
SYMATTR InstName V2
SYMATTR Value 9V
SYMBOL voltage 256 176 R0
WINDOW 3 -121 108 Left 1
WINDOW 123 0 0 Left 0
WINDOW 39 0 0 Left 0
SYMATTR Value SINE(0 0.7 2000)
SYMATTR InstName V3
SYMBOL res 720 160 R0
SYMATTR InstName R2
SYMATTR Value 10k
SYMBOL voltage 96 48 R0
WINDOW 123 0 0 Left 0
WINDOW 39 0 0 Left 0
SYMATTR InstName V4
SYMATTR Value 5V
SYMBOL cap 688 128 R90
WINDOW 0 0 32 VBottom 2
WINDOW 3 32 32 VTop 2
SYMATTR InstName C1
SYMATTR Value 10µ
SYMBOL Opamps\\OP07 480 80 R0
SYMATTR InstName U2
SYMBOL res 368 176 R0
SYMATTR InstName R1
SYMATTR Value 10K
SYMBOL res 368 16 R0
SYMATTR InstName R3
SYMATTR Value 30.1K
SYMBOL res 720 0 R0
SYMATTR InstName R4
SYMATTR Value 10k
TEXT 1096 264 Left 2 !.tran 0.01
TEXT 448 -8 Left 2 ;Gain
TEXT 576 328 Left 2 ;DC Block + 2.5V Bias
TEXT 1096 232 Left 2 !;ac oct 0.01 1 45000
