Version 4
SHEET 1 1336 680
WIRE 576 -32 384 -32
WIRE -32 64 -32 32
WIRE 480 112 480 64
WIRE 1056 112 864 112
WIRE 384 128 384 -32
WIRE 448 128 384 128
WIRE 576 144 576 -32
WIRE 576 144 512 144
WIRE 624 144 576 144
WIRE 736 144 688 144
WIRE 448 160 256 160
WIRE -32 176 -32 144
WIRE -32 176 -112 176
WIRE 736 176 736 144
WIRE -112 192 -112 176
WIRE -32 192 -32 176
WIRE 256 192 256 160
WIRE 480 224 480 176
WIRE 960 256 960 208
WIRE 864 272 864 112
WIRE 928 272 864 272
WIRE 1056 288 1056 112
WIRE 1056 288 992 288
WIRE 1296 288 1056 288
WIRE -32 304 -32 272
WIRE 256 304 256 272
WIRE 736 304 736 256
WIRE 928 304 736 304
WIRE 1296 304 1296 288
WIRE 736 352 736 304
WIRE 960 368 960 320
WIRE 736 464 736 432
FLAG -112 192 0
FLAG -32 32 +9V
FLAG -32 304 -9V
FLAG 256 304 0
FLAG 736 464 0
FLAG 480 64 +9V
FLAG 480 224 -9V
FLAG 960 208 +9V
FLAG 960 368 -9V
SYMBOL voltage -32 48 R0
WINDOW 123 0 0 Left 0
WINDOW 39 0 0 Left 0
SYMATTR InstName V1
SYMATTR Value 9V
SYMBOL voltage -32 176 R0
WINDOW 123 0 0 Left 0
WINDOW 39 0 0 Left 0
SYMATTR InstName V2
SYMATTR Value 9V
SYMBOL voltage 256 176 R0
WINDOW 3 -121 108 Left 1
WINDOW 123 24 44 Left 2
WINDOW 39 0 0 Left 0
SYMATTR Value SINE(2.5V 2.5V 20000)
SYMATTR InstName V3
SYMBOL res 720 160 R0
SYMATTR InstName R2
SYMATTR Value 10k
SYMBOL cap 688 128 R90
WINDOW 0 0 32 VBottom 2
WINDOW 3 32 32 VTop 2
SYMATTR InstName C1
SYMATTR Value 10µ
SYMBOL Opamps\\OP07 480 80 R0
SYMATTR InstName U2
SYMBOL res 720 336 R0
SYMATTR InstName R1
SYMATTR Value 10k
SYMBOL Opamps\\OP07 960 224 R0
SYMATTR InstName U1
TEXT 448 -8 Left 2 ;Buffer
TEXT 560 528 Left 2 ;DC Block + Volume Select
TEXT 928 136 Left 2 ;Buffer
TEXT -132 548 Left 2 !.tran 0.01
